REMARK  Name = 
REMARK  1 active torsions:
REMARK  status: ('A' for Active; 'I' for Inactive)
REMARK    1  A    between atoms: C_3  and  C_11
REMARK                            x       y       z     vdW  Elec       q    Type
REMARK                         _______ _______ _______ _____ _____    ______ ____
ROOT
ATOM      1  N   UNL     1     -22.343  25.107  -6.139  0.00  0.00    +0.000 NA
ATOM      2  C   UNL     1     -22.913  25.079  -4.899  0.00  0.00    +0.000 A 
ATOM      3  N   UNL     1     -22.264  25.593  -3.846  0.00  0.00    +0.000 NA
ATOM      4  C   UNL     1     -22.633  25.298  -2.590  0.00  0.00    +0.000 A 
ATOM      5  N   UNL     1     -21.021  27.026  -6.369  0.00  0.00    +0.000 NA
ATOM      6  O   UNL     1     -24.848  23.961  -5.779  0.00  0.00    +0.000 OA
ATOM      7  C   UNL     1     -24.488  24.021  -3.411  0.00  0.00    +0.000 A 
ATOM      8  C   UNL     1     -24.090  24.321  -4.702  0.00  0.00    +0.000 A 
ATOM      9  C   UNL     1     -21.738  26.051  -6.879  0.00  0.00    +0.000 C 
ATOM     10  C   UNL     1     -23.701  24.451  -2.339  0.00  0.00    +0.000 A 
ENDROOT
BRANCH   9  12
ATOM     11  C   UNL     1     -21.662  24.388  -8.742  0.00  0.00    +0.000 C 
ATOM     12  C   UNL     1     -21.751  25.863  -8.374  0.00  0.00    +0.000 C 
ENDBRANCH   9  12
TORSDOF 1
