MODEL 1
REMARK VINA RESULT:      -6.0      0.000      0.000
REMARK  Name = 
REMARK  1 active torsions:
REMARK  status: ('A' for Active; 'I' for Inactive)
REMARK    1  A    between atoms: C_3  and  C_11
REMARK                            x       y       z     vdW  Elec       q    Type
REMARK                         _______ _______ _______ _____ _____    ______ ____
ROOT
ATOM      1  N   UNL     1     -23.363  24.257  -6.270  0.00  0.00    +0.000 NA
ATOM      2  C   UNL     1     -23.193  24.533  -4.944  0.00  0.00    +0.000 A 
ATOM      3  N   UNL     1     -24.205  24.363  -4.083  0.00  0.00    +0.000 NA
ATOM      4  C   UNL     1     -24.181  24.921  -2.863  0.00  0.00    +0.000 A 
ATOM      5  N   UNL     1     -24.869  22.483  -6.530  0.00  0.00    +0.000 NA
ATOM      6  O   UNL     1     -20.920  25.199  -5.342  0.00  0.00    +0.000 OA
ATOM      7  C   UNL     1     -21.974  25.763  -3.266  0.00  0.00    +0.000 A 
ATOM      8  C   UNL     1     -22.015  25.194  -4.527  0.00  0.00    +0.000 A 
ATOM      9  C   UNL     1     -23.875  23.225  -6.961  0.00  0.00    +0.000 C 
ATOM     10  C   UNL     1     -23.106  25.692  -2.450  0.00  0.00    +0.000 A 
ENDROOT
BRANCH   9  12
ATOM     11  C   UNL     1     -22.192  23.936  -8.665  0.00  0.00    +0.000 C 
ATOM     12  C   UNL     1     -23.384  23.035  -8.373  0.00  0.00    +0.000 C 
ENDBRANCH   9  12
TORSDOF 1
ENDMDL
MODEL 2
REMARK VINA RESULT:      -5.9      2.371      3.024
REMARK  Name = 
REMARK  1 active torsions:
REMARK  status: ('A' for Active; 'I' for Inactive)
REMARK    1  A    between atoms: C_3  and  C_11
REMARK                            x       y       z     vdW  Elec       q    Type
REMARK                         _______ _______ _______ _____ _____    ______ ____
ROOT
ATOM      1  N   UNL     1     -24.366  22.557  -6.825  0.00  0.00    +0.000 NA
ATOM      2  C   UNL     1     -24.206  23.598  -5.957  0.00  0.00    +0.000 A 
ATOM      3  N   UNL     1     -23.054  24.282  -5.929  0.00  0.00    +0.000 NA
ATOM      4  C   UNL     1     -22.743  25.076  -4.893  0.00  0.00    +0.000 A 
ATOM      5  N   UNL     1     -23.170  22.966  -8.796  0.00  0.00    +0.000 NA
ATOM      6  O   UNL     1     -26.418  23.255  -5.087  0.00  0.00    +0.000 OA
ATOM      7  C   UNL     1     -24.873  24.637  -3.885  0.00  0.00    +0.000 A 
ATOM      8  C   UNL     1     -25.178  23.809  -4.952  0.00  0.00    +0.000 A 
ATOM      9  C   UNL     1     -24.143  22.379  -8.137  0.00  0.00    +0.000 C 
ATOM     10  C   UNL     1     -23.603  25.217  -3.816  0.00  0.00    +0.000 A 
ENDROOT
BRANCH   9  12
ATOM     11  C   UNL     1     -25.303  21.733 -10.254  0.00  0.00    +0.000 C 
ATOM     12  C   UNL     1     -24.952  21.315  -8.832  0.00  0.00    +0.000 C 
ENDBRANCH   9  12
TORSDOF 1
ENDMDL
MODEL 3
REMARK VINA RESULT:      -5.9      1.137      4.343
REMARK  Name = 
REMARK  1 active torsions:
REMARK  status: ('A' for Active; 'I' for Inactive)
REMARK    1  A    between atoms: C_3  and  C_11
REMARK                            x       y       z     vdW  Elec       q    Type
REMARK                         _______ _______ _______ _____ _____    ______ ____
ROOT
ATOM      1  N   UNL     1     -23.751  24.105  -4.914  0.00  0.00    +0.000 NA
ATOM      2  C   UNL     1     -23.704  23.842  -6.253  0.00  0.00    +0.000 A 
ATOM      3  N   UNL     1     -24.469  22.875  -6.777  0.00  0.00    +0.000 NA
ATOM      4  C   UNL     1     -24.218  22.375  -7.997  0.00  0.00    +0.000 A 
ATOM      5  N   UNL     1     -25.909  23.710  -4.095  0.00  0.00    +0.000 NA
ATOM      6  O   UNL     1     -22.051  25.556  -6.565  0.00  0.00    +0.000 OA
ATOM      7  C   UNL     1     -22.437  23.951  -8.301  0.00  0.00    +0.000 A 
ATOM      8  C   UNL     1     -22.697  24.449  -7.037  0.00  0.00    +0.000 A 
ATOM      9  C   UNL     1     -24.738  24.301  -4.024  0.00  0.00    +0.000 C 
ATOM     10  C   UNL     1     -23.158  22.843  -8.757  0.00  0.00    +0.000 A 
ENDROOT
BRANCH   9  12
ATOM     11  C   UNL     1     -23.026  25.744  -2.916  0.00  0.00    +0.000 C 
ATOM     12  C   UNL     1     -24.404  25.107  -2.796  0.00  0.00    +0.000 C 
ENDBRANCH   9  12
TORSDOF 1
ENDMDL
MODEL 4
REMARK VINA RESULT:      -5.8      3.288      5.411
REMARK  Name = 
REMARK  1 active torsions:
REMARK  status: ('A' for Active; 'I' for Inactive)
REMARK    1  A    between atoms: C_3  and  C_11
REMARK                            x       y       z     vdW  Elec       q    Type
REMARK                         _______ _______ _______ _____ _____    ______ ____
ROOT
ATOM      1  N   UNL     1     -20.966  25.859  -5.196  0.00  0.00    +0.000 NA
ATOM      2  C   UNL     1     -20.052  25.701  -6.197  0.00  0.00    +0.000 A 
ATOM      3  N   UNL     1     -18.776  25.415  -5.907  0.00  0.00    +0.000 NA
ATOM      4  C   UNL     1     -17.803  25.573  -6.818  0.00  0.00    +0.000 A 
ATOM      5  N   UNL     1     -20.433  24.458  -3.397  0.00  0.00    +0.000 NA
ATOM      6  O   UNL     1     -21.736  26.152  -7.849  0.00  0.00    +0.000 OA
ATOM      7  C   UNL     1     -19.422  26.201  -8.471  0.00  0.00    +0.000 A 
ATOM      8  C   UNL     1     -20.415  26.047  -7.519  0.00  0.00    +0.000 A 
ATOM      9  C   UNL     1     -21.295  25.158  -4.099  0.00  0.00    +0.000 C 
ATOM     10  C   UNL     1     -18.086  26.038  -8.093  0.00  0.00    +0.000 A 
ENDROOT
BRANCH   9  12
ATOM     11  C   UNL     1     -22.670  25.908  -2.152  0.00  0.00    +0.000 C 
ATOM     12  C   UNL     1     -22.693  25.337  -3.564  0.00  0.00    +0.000 C 
ENDBRANCH   9  12
TORSDOF 1
ENDMDL
MODEL 5
REMARK VINA RESULT:      -5.7      2.036      2.858
REMARK  Name = 
REMARK  1 active torsions:
REMARK  status: ('A' for Active; 'I' for Inactive)
REMARK    1  A    between atoms: C_3  and  C_11
REMARK                            x       y       z     vdW  Elec       q    Type
REMARK                         _______ _______ _______ _____ _____    ______ ____
ROOT
ATOM      1  N   UNL     1     -22.507  24.736  -6.733  0.00  0.00    +0.000 NA
ATOM      2  C   UNL     1     -23.245  24.696  -5.585  0.00  0.00    +0.000 A 
ATOM      3  N   UNL     1     -23.005  25.568  -4.598  0.00  0.00    +0.000 NA
ATOM      4  C   UNL     1     -23.470  25.359  -3.357  0.00  0.00    +0.000 A 
ATOM      5  N   UNL     1     -21.891  26.943  -7.212  0.00  0.00    +0.000 NA
ATOM      6  O   UNL     1     -24.500  22.826  -6.421  0.00  0.00    +0.000 OA
ATOM      7  C   UNL     1     -24.609  23.382  -4.093  0.00  0.00    +0.000 A 
ATOM      8  C   UNL     1     -24.112  23.601  -5.366  0.00  0.00    +0.000 A 
ATOM      9  C   UNL     1     -22.134  25.707  -7.583  0.00  0.00    +0.000 C 
ATOM     10  C   UNL     1     -24.217  24.231  -3.054  0.00  0.00    +0.000 A 
ENDROOT
BRANCH   9  12
ATOM     11  C   UNL     1     -22.834  24.289  -9.517  0.00  0.00    +0.000 C 
ATOM     12  C   UNL     1     -21.817  25.297  -8.997  0.00  0.00    +0.000 C 
ENDBRANCH   9  12
TORSDOF 1
ENDMDL
MODEL 6
REMARK VINA RESULT:      -5.7      3.214      4.972
REMARK  Name = 
REMARK  1 active torsions:
REMARK  status: ('A' for Active; 'I' for Inactive)
REMARK    1  A    between atoms: C_3  and  C_11
REMARK                            x       y       z     vdW  Elec       q    Type
REMARK                         _______ _______ _______ _____ _____    ______ ____
ROOT
ATOM      1  N   UNL     1     -21.310  25.876  -5.485  0.00  0.00    +0.000 NA
ATOM      2  C   UNL     1     -20.197  25.690  -6.254  0.00  0.00    +0.000 A 
ATOM      3  N   UNL     1     -19.019  25.412  -5.680  0.00  0.00    +0.000 NA
ATOM      4  C   UNL     1     -17.868  25.545  -6.356  0.00  0.00    +0.000 A 
ATOM      5  N   UNL     1     -21.198  24.526  -3.575  0.00  0.00    +0.000 NA
ATOM      6  O   UNL     1     -21.470  26.095  -8.250  0.00  0.00    +0.000 OA
ATOM      7  C   UNL     1     -19.076  26.126  -8.343  0.00  0.00    +0.000 A 
ATOM      8  C   UNL     1     -20.256  25.999  -7.632  0.00  0.00    +0.000 A 
ATOM      9  C   UNL     1     -21.879  25.206  -4.470  0.00  0.00    +0.000 C 
ATOM     10  C   UNL     1     -17.858  25.974  -7.674  0.00  0.00    +0.000 A 
ENDROOT
BRANCH   9  12
ATOM     11  C   UNL     1     -24.146  24.205  -4.784  0.00  0.00    +0.000 C 
ATOM     12  C   UNL     1     -23.359  25.400  -4.264  0.00  0.00    +0.000 C 
ENDBRANCH   9  12
TORSDOF 1
ENDMDL
MODEL 7
REMARK VINA RESULT:      -5.6      1.901      4.986
REMARK  Name = 
REMARK  1 active torsions:
REMARK  status: ('A' for Active; 'I' for Inactive)
REMARK    1  A    between atoms: C_3  and  C_11
REMARK                            x       y       z     vdW  Elec       q    Type
REMARK                         _______ _______ _______ _____ _____    ______ ____
ROOT
ATOM      1  N   UNL     1     -23.812  24.694  -5.045  0.00  0.00    +0.000 NA
ATOM      2  C   UNL     1     -23.292  24.225  -6.217  0.00  0.00    +0.000 A 
ATOM      3  N   UNL     1     -22.253  24.846  -6.791  0.00  0.00    +0.000 NA
ATOM      4  C   UNL     1     -21.933  24.623  -8.075  0.00  0.00    +0.000 A 
ATOM      5  N   UNL     1     -22.114  25.640  -3.739  0.00  0.00    +0.000 NA
ATOM      6  O   UNL     1     -24.919  22.459  -6.269  0.00  0.00    +0.000 OA
ATOM      7  C   UNL     1     -23.658  22.967  -8.242  0.00  0.00    +0.000 A 
ATOM      8  C   UNL     1     -23.988  23.216  -6.921  0.00  0.00    +0.000 A 
ATOM      9  C   UNL     1     -23.291  25.071  -3.866  0.00  0.00    +0.000 C 
ATOM     10  C   UNL     1     -22.666  23.740  -8.852  0.00  0.00    +0.000 A 
ENDROOT
BRANCH   9  12
ATOM     11  C   UNL     1     -23.620  25.781  -1.493  0.00  0.00    +0.000 C 
ATOM     12  C   UNL     1     -24.191  24.987  -2.660  0.00  0.00    +0.000 C 
ENDBRANCH   9  12
TORSDOF 1
ENDMDL
MODEL 8
REMARK VINA RESULT:      -5.5      2.254      2.867
REMARK  Name = 
REMARK  1 active torsions:
REMARK  status: ('A' for Active; 'I' for Inactive)
REMARK    1  A    between atoms: C_3  and  C_11
REMARK                            x       y       z     vdW  Elec       q    Type
REMARK                         _______ _______ _______ _____ _____    ______ ____
ROOT
ATOM      1  N   UNL     1     -23.451  23.491  -7.140  0.00  0.00    +0.000 NA
ATOM      2  C   UNL     1     -23.649  23.789  -5.823  0.00  0.00    +0.000 A 
ATOM      3  N   UNL     1     -22.714  24.456  -5.134  0.00  0.00    +0.000 NA
ATOM      4  C   UNL     1     -22.723  24.479  -3.792  0.00  0.00    +0.000 A 
ATOM      5  N   UNL     1     -22.188  25.177  -8.162  0.00  0.00    +0.000 NA
ATOM      6  O   UNL     1     -25.788  22.697  -5.865  0.00  0.00    +0.000 OA
ATOM      7  C   UNL     1     -24.773  23.238  -3.762  0.00  0.00    +0.000 A 
ATOM      8  C   UNL     1     -24.746  23.209  -5.146  0.00  0.00    +0.000 A 
ATOM      9  C   UNL     1     -23.050  24.188  -8.216  0.00  0.00    +0.000 C 
ATOM     10  C   UNL     1     -23.703  23.814  -3.073  0.00  0.00    +0.000 A 
ENDROOT
BRANCH   9  12
ATOM     11  C   UNL     1     -23.576  24.816 -10.577  0.00  0.00    +0.000 C 
ATOM     12  C   UNL     1     -23.490  23.681  -9.565  0.00  0.00    +0.000 C 
ENDBRANCH   9  12
TORSDOF 1
ENDMDL
MODEL 9
REMARK VINA RESULT:      -5.5      3.424      4.285
REMARK  Name = 
REMARK  1 active torsions:
REMARK  status: ('A' for Active; 'I' for Inactive)
REMARK    1  A    between atoms: C_3  and  C_11
REMARK                            x       y       z     vdW  Elec       q    Type
REMARK                         _______ _______ _______ _____ _____    ______ ____
ROOT
ATOM      1  N   UNL     1     -19.664  25.472  -6.374  0.00  0.00    +0.000 NA
ATOM      2  C   UNL     1     -20.648  25.540  -5.431  0.00  0.00    +0.000 A 
ATOM      3  N   UNL     1     -20.481  24.955  -4.237  0.00  0.00    +0.000 NA
ATOM      4  C   UNL     1     -21.524  24.721  -3.426  0.00  0.00    +0.000 A 
ATOM      5  N   UNL     1     -17.564  25.445  -5.339  0.00  0.00    +0.000 NA
ATOM      6  O   UNL     1     -22.038  26.804  -6.927  0.00  0.00    +0.000 OA
ATOM      7  C   UNL     1     -22.996  25.823  -4.963  0.00  0.00    +0.000 A 
ATOM      8  C   UNL     1     -21.916  26.046  -5.798  0.00  0.00    +0.000 A 
ATOM      9  C   UNL     1     -18.337  25.686  -6.372  0.00  0.00    +0.000 C 
ATOM     10  C   UNL     1     -22.811  25.078  -3.795  0.00  0.00    +0.000 A 
ENDROOT
BRANCH   9  12
ATOM     11  C   UNL     1     -18.751  26.482  -8.704  0.00  0.00    +0.000 C 
ATOM     12  C   UNL     1     -17.701  26.057  -7.687  0.00  0.00    +0.000 C 
ENDBRANCH   9  12
TORSDOF 1
ENDMDL
