
     RDKit          3D

 12 12  0  0  0  0  0  0  0  0999 V2000
  -22.3427   25.1067   -6.1394 N   0  0  0  0  0  0  0  0  0  0  0  0
  -21.6619   24.3881   -8.7421 C   0  0  0  0  0  0  0  0  0  0  0  0
  -21.7512   25.8629   -8.3738 C   0  0  0  0  0  0  0  0  0  0  0  0
  -22.9133   25.0786   -4.8985 C   0  0  0  0  0  0  0  0  0  0  0  0
  -22.2643   25.5928   -3.8457 N   0  0  0  0  0  0  0  0  0  0  0  0
  -22.6331   25.2977   -2.5898 C   0  0  0  0  0  0  0  0  0  0  0  0
  -21.0207   27.0258   -6.3686 N   0  0  0  0  0  0  0  0  0  0  0  0
  -24.8483   23.9607   -5.7787 O   0  0  0  0  0  0  0  0  0  0  0  0
  -24.4879   24.0207   -3.4111 C   0  0  0  0  0  0  0  0  0  0  0  0
  -24.0898   24.3211   -4.7017 C   0  0  0  0  0  0  0  0  0  0  0  0
  -21.7375   26.0509   -6.8790 C   0  0  0  0  0  0  0  0  0  0  0  0
  -23.7005   24.4508   -2.3389 C   0  0  0  0  0  0  0  0  0  0  0  0
  3  2  1  0
  4  1  1  0
  5  4  2  0
  6  5  1  0
 10  4  1  0
 10  8  1  0
 10  9  2  0
 11  1  1  0
 11  3  1  0
 11  7  2  0
 12  6  2  0
 12  9  1  0
M  END
$$$$
