=
 OpenBabel05102317463D

 12 12  0  0  0  0  0  0  0  0999 V2000
  -23.3630   24.2570   -6.2700 N   0  0  0  0  0  2  0  0  0  0  0  0
  -23.1930   24.5330   -4.9440 C   0  0  0  0  0  0  0  0  0  0  0  0
  -24.2050   24.3630   -4.0830 N   0  0  0  0  0  0  0  0  0  0  0  0
  -24.1810   24.9210   -2.8630 C   0  0  0  0  0  3  0  0  0  0  0  0
  -24.8690   22.4830   -6.5300 N   0  0  0  0  0  2  0  0  0  0  0  0
  -20.9200   25.1990   -5.3420 O   0  0  0  0  0  1  0  0  0  0  0  0
  -21.9740   25.7630   -3.2660 C   0  0  0  0  0  3  0  0  0  0  0  0
  -22.0150   25.1940   -4.5270 C   0  0  0  0  0  0  0  0  0  0  0  0
  -23.8750   23.2250   -6.9610 C   0  0  0  0  0  0  0  0  0  0  0  0
  -23.1060   25.6920   -2.4500 C   0  0  0  0  0  3  0  0  0  0  0  0
  -22.1920   23.9360   -8.6650 C   0  0  0  0  0  1  0  0  0  0  0  0
  -23.3840   23.0350   -8.3730 C   0  0  0  0  0  2  0  0  0  0  0  0
  1  2  1  0  0  0  0
  2  8  1  0  0  0  0
  2  3  2  0  0  0  0
  3  4  1  0  0  0  0
  4 10  2  0  0  0  0
  6  8  1  0  0  0  0
  7 10  1  0  0  0  0
  8  7  2  0  0  0  0
  9  5  2  0  0  0  0
  9  1  1  0  0  0  0
 11 12  1  0  0  0  0
 12  9  1  0  0  0  0
M  END
>  <MODEL>
1

>  <REMARK>
 VINA RESULT:      -6.0      0.000      0.000
  Name = 
  1 active torsions:
  status: ('A' for Active; 'I' for Inactive)
    1  A    between atoms: C_3  and  C_11
                            x       y       z     vdW  Elec       q    Type
                         _______ _______ _______ _____ _____    ______ ____

>  <TORSDO>
F 1

$$$$
=
 OpenBabel05102317463D

 12 12  0  0  0  0  0  0  0  0999 V2000
  -24.3660   22.5570   -6.8250 N   0  0  0  0  0  2  0  0  0  0  0  0
  -24.2060   23.5980   -5.9570 C   0  0  0  0  0  0  0  0  0  0  0  0
  -23.0540   24.2820   -5.9290 N   0  0  0  0  0  0  0  0  0  0  0  0
  -22.7430   25.0760   -4.8930 C   0  0  0  0  0  3  0  0  0  0  0  0
  -23.1700   22.9660   -8.7960 N   0  0  0  0  0  2  0  0  0  0  0  0
  -26.4180   23.2550   -5.0870 O   0  0  0  0  0  1  0  0  0  0  0  0
  -24.8730   24.6370   -3.8850 C   0  0  0  0  0  3  0  0  0  0  0  0
  -25.1780   23.8090   -4.9520 C   0  0  0  0  0  0  0  0  0  0  0  0
  -24.1430   22.3790   -8.1370 C   0  0  0  0  0  0  0  0  0  0  0  0
  -23.6030   25.2170   -3.8160 C   0  0  0  0  0  3  0  0  0  0  0  0
  -25.3030   21.7330  -10.2540 C   0  0  0  0  0  1  0  0  0  0  0  0
  -24.9520   21.3150   -8.8320 C   0  0  0  0  0  2  0  0  0  0  0  0
  1  2  1  0  0  0  0
  2  3  2  0  0  0  0
  2  8  1  0  0  0  0
  3  4  1  0  0  0  0
  4 10  2  0  0  0  0
  5  9  2  0  0  0  0
  6  8  1  0  0  0  0
  7 10  1  0  0  0  0
  8  7  2  0  0  0  0
  9  1  1  0  0  0  0
 11 12  1  0  0  0  0
 12  9  1  0  0  0  0
M  END
>  <MODEL>
2

>  <REMARK>
 VINA RESULT:      -5.9      2.371      3.024
  Name = 
  1 active torsions:
  status: ('A' for Active; 'I' for Inactive)
    1  A    between atoms: C_3  and  C_11
                            x       y       z     vdW  Elec       q    Type
                         _______ _______ _______ _____ _____    ______ ____

>  <TORSDO>
F 1

$$$$
=
 OpenBabel05102317463D

 12 12  0  0  0  0  0  0  0  0999 V2000
  -23.7510   24.1050   -4.9140 N   0  0  0  0  0  2  0  0  0  0  0  0
  -23.7040   23.8420   -6.2530 C   0  0  0  0  0  0  0  0  0  0  0  0
  -24.4690   22.8750   -6.7770 N   0  0  0  0  0  0  0  0  0  0  0  0
  -24.2180   22.3750   -7.9970 C   0  0  0  0  0  3  0  0  0  0  0  0
  -25.9090   23.7100   -4.0950 N   0  0  0  0  0  2  0  0  0  0  0  0
  -22.0510   25.5560   -6.5650 O   0  0  0  0  0  1  0  0  0  0  0  0
  -22.4370   23.9510   -8.3010 C   0  0  0  0  0  3  0  0  0  0  0  0
  -22.6970   24.4490   -7.0370 C   0  0  0  0  0  0  0  0  0  0  0  0
  -24.7380   24.3010   -4.0240 C   0  0  0  0  0  0  0  0  0  0  0  0
  -23.1580   22.8430   -8.7570 C   0  0  0  0  0  3  0  0  0  0  0  0
  -23.0260   25.7440   -2.9160 C   0  0  0  0  0  1  0  0  0  0  0  0
  -24.4040   25.1070   -2.7960 C   0  0  0  0  0  2  0  0  0  0  0  0
  1  9  1  0  0  0  0
  2  1  1  0  0  0  0
  3  2  2  0  0  0  0
  4  3  1  0  0  0  0
  5  9  2  0  0  0  0
  7  8  2  0  0  0  0
  8  6  1  0  0  0  0
  8  2  1  0  0  0  0
  9 12  1  0  0  0  0
 10  7  1  0  0  0  0
 10  4  2  0  0  0  0
 11 12  1  0  0  0  0
M  END
>  <MODEL>
3

>  <REMARK>
 VINA RESULT:      -5.9      1.137      4.343
  Name = 
  1 active torsions:
  status: ('A' for Active; 'I' for Inactive)
    1  A    between atoms: C_3  and  C_11
                            x       y       z     vdW  Elec       q    Type
                         _______ _______ _______ _____ _____    ______ ____

>  <TORSDO>
F 1

$$$$
=
 OpenBabel05102317463D

 12 12  0  0  0  0  0  0  0  0999 V2000
  -20.9660   25.8590   -5.1960 N   0  0  0  0  0  2  0  0  0  0  0  0
  -20.0520   25.7010   -6.1970 C   0  0  0  0  0  0  0  0  0  0  0  0
  -18.7760   25.4150   -5.9070 N   0  0  0  0  0  0  0  0  0  0  0  0
  -17.8030   25.5730   -6.8180 C   0  0  0  0  0  3  0  0  0  0  0  0
  -20.4330   24.4580   -3.3970 N   0  0  0  0  0  2  0  0  0  0  0  0
  -21.7360   26.1520   -7.8490 O   0  0  0  0  0  1  0  0  0  0  0  0
  -19.4220   26.2010   -8.4710 C   0  0  0  0  0  3  0  0  0  0  0  0
  -20.4150   26.0470   -7.5190 C   0  0  0  0  0  0  0  0  0  0  0  0
  -21.2950   25.1580   -4.0990 C   0  0  0  0  0  0  0  0  0  0  0  0
  -18.0860   26.0380   -8.0930 C   0  0  0  0  0  3  0  0  0  0  0  0
  -22.6700   25.9080   -2.1520 C   0  0  0  0  0  1  0  0  0  0  0  0
  -22.6930   25.3370   -3.5640 C   0  0  0  0  0  2  0  0  0  0  0  0
  1  9  1  0  0  0  0
  2  3  2  0  0  0  0
  2  1  1  0  0  0  0
  4  3  1  0  0  0  0
  6  8  1  0  0  0  0
  7 10  1  0  0  0  0
  7  8  2  0  0  0  0
  8  2  1  0  0  0  0
  9 12  1  0  0  0  0
  9  5  2  0  0  0  0
 10  4  2  0  0  0  0
 12 11  1  0  0  0  0
M  END
>  <MODEL>
4

>  <REMARK>
 VINA RESULT:      -5.8      3.288      5.411
  Name = 
  1 active torsions:
  status: ('A' for Active; 'I' for Inactive)
    1  A    between atoms: C_3  and  C_11
                            x       y       z     vdW  Elec       q    Type
                         _______ _______ _______ _____ _____    ______ ____

>  <TORSDO>
F 1

$$$$
=
 OpenBabel05102317463D

 12 12  0  0  0  0  0  0  0  0999 V2000
  -22.5070   24.7360   -6.7330 N   0  0  0  0  0  2  0  0  0  0  0  0
  -23.2450   24.6960   -5.5850 C   0  0  0  0  0  0  0  0  0  0  0  0
  -23.0050   25.5680   -4.5980 N   0  0  0  0  0  0  0  0  0  0  0  0
  -23.4700   25.3590   -3.3570 C   0  0  0  0  0  3  0  0  0  0  0  0
  -21.8910   26.9430   -7.2120 N   0  0  0  0  0  2  0  0  0  0  0  0
  -24.5000   22.8260   -6.4210 O   0  0  0  0  0  1  0  0  0  0  0  0
  -24.6090   23.3820   -4.0930 C   0  0  0  0  0  3  0  0  0  0  0  0
  -24.1120   23.6010   -5.3660 C   0  0  0  0  0  0  0  0  0  0  0  0
  -22.1340   25.7070   -7.5830 C   0  0  0  0  0  0  0  0  0  0  0  0
  -24.2170   24.2310   -3.0540 C   0  0  0  0  0  3  0  0  0  0  0  0
  -22.8340   24.2890   -9.5170 C   0  0  0  0  0  1  0  0  0  0  0  0
  -21.8170   25.2970   -8.9970 C   0  0  0  0  0  2  0  0  0  0  0  0
  1  2  1  0  0  0  0
  2  8  1  0  0  0  0
  2  3  2  0  0  0  0
  3  4  1  0  0  0  0
  4 10  2  0  0  0  0
  6  8  1  0  0  0  0
  7 10  1  0  0  0  0
  8  7  2  0  0  0  0
  9  5  2  0  0  0  0
  9  1  1  0  0  0  0
 11 12  1  0  0  0  0
 12  9  1  0  0  0  0
M  END
>  <MODEL>
5

>  <REMARK>
 VINA RESULT:      -5.7      2.036      2.858
  Name = 
  1 active torsions:
  status: ('A' for Active; 'I' for Inactive)
    1  A    between atoms: C_3  and  C_11
                            x       y       z     vdW  Elec       q    Type
                         _______ _______ _______ _____ _____    ______ ____

>  <TORSDO>
F 1

$$$$
=
 OpenBabel05102317463D

 12 12  0  0  0  0  0  0  0  0999 V2000
  -21.3100   25.8760   -5.4850 N   0  0  0  0  0  2  0  0  0  0  0  0
  -20.1970   25.6900   -6.2540 C   0  0  0  0  0  0  0  0  0  0  0  0
  -19.0190   25.4120   -5.6800 N   0  0  0  0  0  0  0  0  0  0  0  0
  -17.8680   25.5450   -6.3560 C   0  0  0  0  0  3  0  0  0  0  0  0
  -21.1980   24.5260   -3.5750 N   0  0  0  0  0  2  0  0  0  0  0  0
  -21.4700   26.0950   -8.2500 O   0  0  0  0  0  1  0  0  0  0  0  0
  -19.0760   26.1260   -8.3430 C   0  0  0  0  0  3  0  0  0  0  0  0
  -20.2560   25.9990   -7.6320 C   0  0  0  0  0  0  0  0  0  0  0  0
  -21.8790   25.2060   -4.4700 C   0  0  0  0  0  0  0  0  0  0  0  0
  -17.8580   25.9740   -7.6740 C   0  0  0  0  0  3  0  0  0  0  0  0
  -24.1460   24.2050   -4.7840 C   0  0  0  0  0  1  0  0  0  0  0  0
  -23.3590   25.4000   -4.2640 C   0  0  0  0  0  2  0  0  0  0  0  0
  1  9  1  0  0  0  0
  2  3  2  0  0  0  0
  2  1  1  0  0  0  0
  4  3  1  0  0  0  0
  6  8  1  0  0  0  0
  7 10  1  0  0  0  0
  7  8  2  0  0  0  0
  8  2  1  0  0  0  0
  9 12  1  0  0  0  0
  9  5  2  0  0  0  0
 10  4  2  0  0  0  0
 11 12  1  0  0  0  0
M  END
>  <MODEL>
6

>  <REMARK>
 VINA RESULT:      -5.7      3.214      4.972
  Name = 
  1 active torsions:
  status: ('A' for Active; 'I' for Inactive)
    1  A    between atoms: C_3  and  C_11
                            x       y       z     vdW  Elec       q    Type
                         _______ _______ _______ _____ _____    ______ ____

>  <TORSDO>
F 1

$$$$
=
 OpenBabel05102317463D

 12 12  0  0  0  0  0  0  0  0999 V2000
  -23.8120   24.6940   -5.0450 N   0  0  0  0  0  2  0  0  0  0  0  0
  -23.2920   24.2250   -6.2170 C   0  0  0  0  0  0  0  0  0  0  0  0
  -22.2530   24.8460   -6.7910 N   0  0  0  0  0  0  0  0  0  0  0  0
  -21.9330   24.6230   -8.0750 C   0  0  0  0  0  3  0  0  0  0  0  0
  -22.1140   25.6400   -3.7390 N   0  0  0  0  0  2  0  0  0  0  0  0
  -24.9190   22.4590   -6.2690 O   0  0  0  0  0  1  0  0  0  0  0  0
  -23.6580   22.9670   -8.2420 C   0  0  0  0  0  3  0  0  0  0  0  0
  -23.9880   23.2160   -6.9210 C   0  0  0  0  0  0  0  0  0  0  0  0
  -23.2910   25.0710   -3.8660 C   0  0  0  0  0  0  0  0  0  0  0  0
  -22.6660   23.7400   -8.8520 C   0  0  0  0  0  3  0  0  0  0  0  0
  -23.6200   25.7810   -1.4930 C   0  0  0  0  0  1  0  0  0  0  0  0
  -24.1910   24.9870   -2.6600 C   0  0  0  0  0  2  0  0  0  0  0  0
  1  9  1  0  0  0  0
  2  1  1  0  0  0  0
  3  2  2  0  0  0  0
  4  3  1  0  0  0  0
  7  8  2  0  0  0  0
  8  6  1  0  0  0  0
  8  2  1  0  0  0  0
  9  5  2  0  0  0  0
  9 12  1  0  0  0  0
 10  7  1  0  0  0  0
 10  4  2  0  0  0  0
 12 11  1  0  0  0  0
M  END
>  <MODEL>
7

>  <REMARK>
 VINA RESULT:      -5.6      1.901      4.986
  Name = 
  1 active torsions:
  status: ('A' for Active; 'I' for Inactive)
    1  A    between atoms: C_3  and  C_11
                            x       y       z     vdW  Elec       q    Type
                         _______ _______ _______ _____ _____    ______ ____

>  <TORSDO>
F 1

$$$$
=
 OpenBabel05102317463D

 12 12  0  0  0  0  0  0  0  0999 V2000
  -23.4510   23.4910   -7.1400 N   0  0  0  0  0  2  0  0  0  0  0  0
  -23.6490   23.7890   -5.8230 C   0  0  0  0  0  0  0  0  0  0  0  0
  -22.7140   24.4560   -5.1340 N   0  0  0  0  0  0  0  0  0  0  0  0
  -22.7230   24.4790   -3.7920 C   0  0  0  0  0  3  0  0  0  0  0  0
  -22.1880   25.1770   -8.1620 N   0  0  0  0  0  2  0  0  0  0  0  0
  -25.7880   22.6970   -5.8650 O   0  0  0  0  0  1  0  0  0  0  0  0
  -24.7730   23.2380   -3.7620 C   0  0  0  0  0  3  0  0  0  0  0  0
  -24.7460   23.2090   -5.1460 C   0  0  0  0  0  0  0  0  0  0  0  0
  -23.0500   24.1880   -8.2160 C   0  0  0  0  0  0  0  0  0  0  0  0
  -23.7030   23.8140   -3.0730 C   0  0  0  0  0  3  0  0  0  0  0  0
  -23.5760   24.8160  -10.5770 C   0  0  0  0  0  1  0  0  0  0  0  0
  -23.4900   23.6810   -9.5650 C   0  0  0  0  0  2  0  0  0  0  0  0
  1  2  1  0  0  0  0
  2  8  1  0  0  0  0
  2  3  2  0  0  0  0
  3  4  1  0  0  0  0
  4 10  2  0  0  0  0
  6  8  1  0  0  0  0
  7 10  1  0  0  0  0
  8  7  2  0  0  0  0
  9  5  2  0  0  0  0
  9  1  1  0  0  0  0
 11 12  1  0  0  0  0
 12  9  1  0  0  0  0
M  END
>  <MODEL>
8

>  <REMARK>
 VINA RESULT:      -5.5      2.254      2.867
  Name = 
  1 active torsions:
  status: ('A' for Active; 'I' for Inactive)
    1  A    between atoms: C_3  and  C_11
                            x       y       z     vdW  Elec       q    Type
                         _______ _______ _______ _____ _____    ______ ____

>  <TORSDO>
F 1

$$$$
=
 OpenBabel05102317463D

 12 12  0  0  0  0  0  0  0  0999 V2000
  -19.6640   25.4720   -6.3740 N   0  0  0  0  0  2  0  0  0  0  0  0
  -20.6480   25.5400   -5.4310 C   0  0  0  0  0  0  0  0  0  0  0  0
  -20.4810   24.9550   -4.2370 N   0  0  0  0  0  0  0  0  0  0  0  0
  -21.5240   24.7210   -3.4260 C   0  0  0  0  0  3  0  0  0  0  0  0
  -17.5640   25.4450   -5.3390 N   0  0  0  0  0  2  0  0  0  0  0  0
  -22.0380   26.8040   -6.9270 O   0  0  0  0  0  1  0  0  0  0  0  0
  -22.9960   25.8230   -4.9630 C   0  0  0  0  0  3  0  0  0  0  0  0
  -21.9160   26.0460   -5.7980 C   0  0  0  0  0  0  0  0  0  0  0  0
  -18.3370   25.6860   -6.3720 C   0  0  0  0  0  0  0  0  0  0  0  0
  -22.8110   25.0780   -3.7950 C   0  0  0  0  0  3  0  0  0  0  0  0
  -18.7510   26.4820   -8.7040 C   0  0  0  0  0  1  0  0  0  0  0  0
  -17.7010   26.0570   -7.6870 C   0  0  0  0  0  2  0  0  0  0  0  0
  1  9  1  0  0  0  0
  1  2  1  0  0  0  0
  2  3  2  0  0  0  0
  3  4  1  0  0  0  0
  6  8  1  0  0  0  0
  7 10  1  0  0  0  0
  8  2  1  0  0  0  0
  8  7  2  0  0  0  0
  9  5  2  0  0  0  0
 10  4  2  0  0  0  0
 11 12  1  0  0  0  0
 12  9  1  0  0  0  0
M  END
>  <MODEL>
9

>  <REMARK>
 VINA RESULT:      -5.5      3.424      4.285
  Name = 
  1 active torsions:
  status: ('A' for Active; 'I' for Inactive)
    1  A    between atoms: C_3  and  C_11
                            x       y       z     vdW  Elec       q    Type
                         _______ _______ _______ _____ _____    ______ ____

>  <TORSDO>
F 1

$$$$
