/tmp/tmptgcc51s0
     RDKit          3D

 19 21  0  0  1  0  0  0  0  0999 V2000
   31.8040   33.5490  102.7310 C   0  0  0  0  0  3  0  0  0  0  0  0
   26.6200   34.9200  104.4720 C   0  0  0  0  0  3  0  0  0  0  0  0
   30.5380   33.2340  102.3190 C   0  0  0  0  0  3  0  0  0  0  0  0
   25.5230   35.1620  105.2470 C   0  0  0  0  0  3  0  0  0  0  0  0
   24.7790   37.2180  105.5420 O   0  0  0  0  0  1  0  0  0  0  0  0
   30.3400   35.9120  103.8150 C   0  0  0  0  0  0  0  0  0  0  0  0
   28.6560   37.2290  103.4890 C   0  0  0  0  0  2  0  0  0  0  0  0
   28.2840   35.9910  103.2250 N   0  0  0  0  0  0  0  0  0  0  0  0
   29.9430   37.1920  103.8390 N   0  0  0  0  0  2  0  0  0  0  0  0
   24.8170   36.0140  102.4920 C   0  0  0  0  0  3  0  0  0  0  0  0
   23.3570   35.7310  105.6520 F   0  0  0  0  0  0  0  0  0  0  0  0
   24.4470   35.9960  104.9520 C   0  0  2  0  0  0  0  0  0  0  0  0
   27.0360   35.5270  103.3150 C   0  0  0  0  0  3  0  0  0  0  0  0
   24.1070   36.1240  103.6240 C   0  0  0  0  0  3  0  0  0  0  0  0
   29.3490   35.1920  103.1930 C   0  0  0  0  0  0  0  0  0  0  0  0
   32.1880   34.3570  103.7650 C   0  0  0  0  0  2  0  0  0  0  0  0
   31.4970   35.3810  104.3650 C   0  0  0  0  0  3  0  0  0  0  0  0
   29.4300   34.0060  102.5230 C   0  0  0  0  0  3  0  0  0  0  0  0
   26.1300   35.6660  102.2700 C   0  0  0  0  0  2  0  0  0  0  0  0
  1 16  1  0
  2  4  2  0
  3 18  1  0
  3  1  2  0
  6  9  1  0
  6 17  2  0
  7  9  1  0
  8 13  1  0
  8  7  1  0
 10 14  2  0
 12  4  1  0
 12  5  1  1
 12 11  1  0
 13 19  1  0
 13  2  1  0
 14 12  1  0
 15  8  1  0
 15  6  1  0
 16 17  1  0
 18 15  2  0
 19 10  1  0
M  END
$$$$
