/tmp/tmpnff_d941
     RDKit          3D

  7  6  0  0  0  0  0  0  0  0999 V2000
   44.3480   37.3180   81.7820 C   0  0  0  0  0  3  0  0  0  0  0  0
   44.9650   37.9180   80.6830 C   0  0  0  0  0  2  0  0  0  0  0  0
   46.8270   36.0360   83.5190 O   0  0  0  0  0  1  0  0  0  0  0  0
   45.3300   37.0910   79.4940 C   0  0  0  0  0  1  0  0  0  0  0  0
   44.6640   36.3400   82.6270 C   0  0  0  0  0  3  0  0  0  0  0  0
   45.9710   35.6450   82.7480 C   0  0  0  0  0  0  0  0  0  0  0  0
   46.1530   34.6120   82.0560 O   0  0  0  0  0  0  0  0  0  0  0  0
  1  5  2  0
  2  1  1  0
  4  2  1  0
  5  6  1  0
  6  3  1  0
  7  6  2  0
M  END
$$$$
